/*--------------------------------*- C++ -*----------------------------------*\
  =========                 |
  \\      /  F ield         | OpenFOAM: The Open Source CFD Toolbox
   \\    /   O peration     | Website:  https://openfoam.org
    \\  /    A nd           | Version:  6
     \\/     M anipulation  |
\*---------------------------------------------------------------------------*/
FoamFile
{
    version     2.0;
    format      ascii;
    class       volScalarField;
    object      T;
}
// * * * * * * * * * * * * * * * * * * * * * * * * * * * * * * * * * * * * * //

dimensions      [0 0 0 1 0 0 0];

internalField   uniform 300.0;

boundaryField
{
    inlet
    {
        type            fixedValue;
        value           uniform 250;
    }

    outlet
    {
        type            zeroGradient;
    }

    freestream
    {
        type            zeroGradient;
    }

    freestreamInlet
    {
        type            zeroGradient;
    }

    wedge1 {type wedge;}
    wedge2 {type wedge;}
}

// ************************************************************************* //
